! Generated by create_data.m
F_0 = 7.59943e-05
INPUTDIR = "INPUT/CESM_MOM_COLUMNS/BATS"
CESM_INPUTDIR = "INPUT/CESM_MOM_COLUMNS/BATS"
READ_NDEP = FALSE
READ_RIV_FLUXES = FALSE
