! Generated by create_data.m
F_0 = 7.59943e-05
INPUTDIR = "INPUT/CESM_MOM_COLUMNS/BATS"
CESM_INPUTDIR = "INPUT/CESM_MOM_COLUMNS/BATS"
TEMP_SALT_INIT_VERTICAL_REMAP_ONLY=TRUE
MARBL_TRACERS_INIT_VERTICAL_REMAP_ONLY=TRUE
CHL_FROM_FILE = FALSE
READ_RIV_FLUXES = FALSE
