/* WARNING: DO NOT EDIT the MOM_input file inside the run directory. Otherwise, your
   changes will be overriden! Instead, apply your changes via CIME: Use the SourceMods
   mechanism or list your parameter changes in user_nl_mom file.

   This input file provides the adjustable run-time parameters for version 6 of
   the Modular Ocean Model (MOM6), a numerical ocean model developed at NOAA-GFDL.
   Where appropriate, parameters use usually given in MKS units.

   This particular file is for the CESM+MOM6 C and G compset runs with T62_g16 resolution.

   This MOM_input file typically contains only the non-default values that are
   needed to reproduce this example.  A full list of parameters for this example
   can be found in the corresponding MOM_parameter_doc.all file which is
   generated by the model at run-time. */

TRIPOLAR_N = True               !   [Boolean] default = False
                                ! Use tripolar connectivity at the northern edge of the
                                ! domain.  With TRIPOLAR_N, NIGLOBAL must be even.
!SYMMETRIC_MEMORY_ = False      !   [Boolean]
                                ! If defined, the velocity point data domain includes
                                ! every face of the thickness points. In other words,
                                ! some arrays are larger than others, depending on where
                                ! they are on the staggered grid.  Also, the starting
                                ! index of the velocity-point arrays is usually 0, not 1.
                                ! This can only be set at compile time.
!STATIC_MEMORY_ = False         !   [Boolean]
                                ! If STATIC_MEMORY_ is defined, the principle variables
                                ! will have sizes that are statically determined at
                                ! compile time.  Otherwise the sizes are not determined
                                ! until run time. The STATIC option is substantially
                                ! faster, but does not allow the PE count to be changed
                                ! at run time.  This can only be set at compile time.
NIHALO = 4                      ! default = 2
                                ! The number of halo points on each side in the
                                ! x-direction.  With STATIC_MEMORY_ this is set as NIHALO_
                                ! in MOM_memory.h at compile time; without STATIC_MEMORY_
                                ! the default is NIHALO_ in MOM_memory.h (if defined) or 2.
NJHALO = 4                      ! default = 2
                                ! The number of halo points on each side in the
                                ! y-direction.  With STATIC_MEMORY_ this is set as NJHALO_
                                ! in MOM_memory.h at compile time; without STATIC_MEMORY_
                                ! the default is NJHALO_ in MOM_memory.h (if defined) or 2.
NIGLOBAL = 540                  !
                                ! The total number of thickness grid points in the
                                ! x-direction in the physical domain. With STATIC_MEMORY_
                                ! this is set in MOM_memory.h at compile time.
NJGLOBAL = 458                  !
                                ! The total number of thickness grid points in the
                                ! y-direction in the physical domain. With STATIC_MEMORY_
                                ! this is set in MOM_memory.h at compile time.
!NIPROC = 8                     !
                                ! The number of processors in the x-direction. With
                                ! STATIC_MEMORY_ this is set in MOM_memory.h at compile time.
!NJPROC = 8                     !
                                ! The number of processors in the x-direction. With
                                ! STATIC_MEMORY_ this is set in MOM_memory.h at compile time.
!LAYOUT = 8, 8                  !
                                ! The processor layout that was acutally used.
IO_LAYOUT = 1, 1                ! default = 0
                                ! The processor layout to be used, or 0,0 to automatically
                                ! set the io_layout to be the same as the layout.

! === module MOM_grid ===
! Parameters providing information about the vertical grid.

! === module MOM_verticalGrid ===
! Parameters providing information about the vertical grid.
NK = 60                         !   [nondim]
                                ! The number of model layers.

! === module MOM ===
USE_LEGACY_DIABATIC_DRIVER = False !   [Boolean] default = True
                                ! If true, use the a legacy version of the diabatic subroutine.
                                ! This is temporary and is needed avoid change in answers.
DIABATIC_FIRST = True           !   [Boolean] default = False
                                ! If true, apply diabatic and thermodynamic processes,
                                ! including buoyancy forcing and mass gain or loss,
                                ! before stepping the dynamics forward.
USE_REGRIDDING = True           !   [Boolean] default = False
                                ! If True, use the ALE algorithm (regridding/remapping).
                                ! If False, use the layered isopycnal algorithm.
BULKMIXEDLAYER = False          !   [Boolean] default = False
                                ! If true, use a Kraus-Turner-like bulk mixed layer
                                ! with transitional buffer layers.  Layers 1 through
                                ! NKML+NKBL have variable densities. There must be at
                                ! least NKML+NKBL+1 layers if BULKMIXEDLAYER is true.
                                ! BULKMIXEDLAYER can not be used with USE_REGRIDDING.
                                ! The default is influenced by ENABLE_THERMODYNAMICS.
THICKNESSDIFFUSE = True         !   [Boolean] default = False
                                ! If true, interfaces or isopycnal surfaces are diffused,
                                ! depending on the value of FULL_THICKNESSDIFFUSE.
THICKNESSDIFFUSE_FIRST = True   !   [Boolean] default = False
                                ! If true, do thickness diffusion before dynamics.
                                ! This is only used if THICKNESSDIFFUSE is true.
DT = 1800.0                     !   [s]
                                ! The (baroclinic) dynamics time step.  The time-step that
                                ! is actually used will be an integer fraction of the
                                ! forcing time-step (DT_FORCING in ocean-only mode or the
                                ! coupling timestep in coupled mode.)
DT_THERM = 3600.0               !   [s] default = 3600.0
                                ! The thermodynamic and tracer advection time step.
                                ! Ideally DT_THERM should be an integer multiple of DT
                                ! and less than the forcing or coupling time-step.
                                ! By default DT_THERM is set to DT.
                                ! The minimum amount of time in seconds between
                                ! calculations of depth-space diagnostics. Making this
                                ! larger than DT_THERM reduces the  performance penalty
                                ! of regridding to depth online.
HFREEZE = 10.0                  !   [m] default = -1.0
                                ! If HFREEZE > 0, melt potential will be computed. The actual depth
                                ! over which melt potential is computed will be min(HFREEZE, OBLD),
                                ! where OBLD is the boundary layer depth. If HFREEZE <= 0 (default),
                                ! melt potential will not be computed.
DTBT_RESET_PERIOD = 0.0         !   [s] default = 7200.0
                                ! The period between recalculations of DTBT (if DTBT <= 0).
                                ! If DTBT_RESET_PERIOD is negative, DTBT is set based
                                ! only on information available at initialization.  If
                                ! dynamic, DTBT will be set at least every forcing time
                                ! step, and if 0, every dynamics time step.  The default is
                                ! set by DT_THERM.  This is only used if SPLIT is true.
FRAZIL = True                   !   [Boolean] default = False
                                ! If true, water freezes if it gets too cold, and the
                                ! the accumulated heat deficit is returned in the
                                ! surface state.  FRAZIL is only used if
                                ! ENABLE_THERMODYNAMICS is true.
                                ! If true, apply geothermal heating.
BOUND_SALINITY = True           !   [Boolean] default = False
                                ! If true, limit salinity to being positive. (The sea-ice
                                ! model may ask for more salt than is available and
                                ! drive the salinity negative otherwise.)
C_P = 3925.0                    !   [J kg-1 K-1] default = 3991.86795711963
                                ! The heat capacity of sea water, approximated as a
                                ! constant. This is only used if ENABLE_THERMODYNAMICS is
                                ! true. The default value is from the TEOS-10 definition
                                ! of conservative temperature.
CHECK_BAD_SURFACE_VALS = True   !   [Boolean] default = False
                                ! If true, check the surface state for ridiculous values.
SAVE_INITIAL_CONDS = True       !   [Boolean] default = False
                                ! If true, write the initial conditions to a file given
                                ! by IC_OUTPUT_FILE.

! === module MOM_tracer_registry ===
TFREEZE_DP = -7.75E-08         !   [deg C Pa-1] default = 0.0
                                ! When TFREEZE_FORM=LINEAR,
                                ! this is the derivative of the freezing potential
                                ! temperature with pressure.
DTFREEZE_DP = -7.75E-08         !   [deg C Pa-1] default = 0.0
                                ! When TFREEZE_FORM=LINEAR,
                                ! this is the derivative of the freezing potential
                                ! temperature with pressure.
! === module MOM_tracer_flow_control ===
USE_IDEAL_AGE_TRACER = False    !   [Boolean] default = False
                                ! If true, use the ideal_age_example tracer package.

! === module ideal_age_example ===
INPUTDIR = "$DIN_LOC_ROOT"      ! default = "."
                                ! The directory in which input files are found.
COORD_CONFIG = "none"           !
                                ! This specifies how layers are to be defined:
                                !     file - read coordinate information from the file
                                !       specified by (COORD_FILE).
                                !     linear - linear based on interfaces not layesrs.
                                !     ts_ref - use reference temperature and salinity
                                !     ts_range - use range of temperature and salinity
                                !       (T_REF and S_REF) to determine surface density
                                !       and GINT calculate internal densities.
                                !     gprime - use reference density (RHO_0) for surface
                                !       density and GINT calculate internal densities.
                                !     ts_profile - use temperature and salinity profiles
                                !       (read from COORD_FILE) to set layer densities.
                                !     USER - call a user modified routine.
                                ! The file from which the coordinate densities are read.

! === module MOM_grid_init ===
GRID_CONFIG = "mosaic"          !
                                ! A character string that determines the method for
                                ! defining the horizontal grid.  Current options are:
                                !     mosaic - read the grid from a mosaic (supergrid)
                                !              file set by GRID_FILE.
                                !     cartesian - use a (flat) Cartesian grid.
                                !     spherical - use a simple spherical grid.
                                !     mercator - use a Mercator spherical grid.
GRID_FILE = "ocean_hgrid_180829.nc" !
                                ! Name of the file from which to read horizontal grid data.
TOPO_CONFIG = "file"            !
                                ! This specifies how bathymetry is specified:
                                !     file - read bathymetric information from the file
                                !       specified by (TOPO_FILE).
                                !     flat - flat bottom set to MAXIMUM_DEPTH.
                                !     bowl - an analytically specified bowl-shaped basin
                                !       ranging between MAXIMUM_DEPTH and MINIMUM_DEPTH.
                                !     spoon - a similar shape to 'bowl', but with an vertical
                                !       wall at the southern face.
                                !     halfpipe - a zonally uniform channel with a half-sine
                                !       profile in the meridional direction.
                                !     benchmark - use the benchmark test case topography.
                                !     DOME - use a slope and channel configuration for the
                                !       DOME sill-overflow test case.
                                !     DOME2D - use a shelf and slope configuration for the
                                !       DOME2D gravity current/overflow test case.
                                !     seamount - Gaussian bump for spontaneous motion test case.
                                !     USER - call a user modified routine.
TOPO_FILE = "ocean_topog_180829.nc" ! default = "topog.nc"
                                ! The file from which the bathymetry is read.
MAXIMUM_DEPTH = 6000.0          !   [m]
                                ! The maximum depth of the ocean.
MINIMUM_DEPTH = 9.5             !   [m] default = 0.0
                                ! If MASKING_DEPTH is unspecified, then anything shallower than
                                ! MINIMUM_DEPTH is assumed to be land and all fluxes are masked out.
                                ! If MASKING_DEPTH is specified, then all depths shallower than
                                ! MINIMUM_DEPTH but depper than MASKING_DEPTH are rounded to MINIMUM_DEPTH.
MASKING_DEPTH = 0.0             !   [m] default = -9999.0
                                ! The depth below which to mask points as land points, for which all
                                ! fluxes are zeroed out. MASKING_DEPTH is ignored if negative.
CHANNEL_CONFIG = "none"         ! default = "none"
                                ! A parameter that determines which set of channels are
                                ! restricted to specific  widths.  Options are:
                                !     none - All channels have the grid width.
                                !     global_1deg - Sets 16 specific channels appropriate
                                !       for a 1-degree model, as used in CM2G.
                                !     list - Read the channel locations and widths from a
                                !       text file, like MOM_channel_list in the MOM_SIS
                                !       test case.
                                !     file - Read open face widths everywhere from a
                                !       NetCDF file on the model grid.
REMAPPING_SCHEME = "PPM_H4"     ! default = "PLM"
                                ! This sets the reconstruction scheme used
                                ! for vertical remapping for all variables.
                                ! It can be one of the following schemes:
                                ! PCM         (1st-order accurate)
                                ! PLM         (2nd-order accurate)
                                ! PPM_H4      (3rd-order accurate)
                                ! PPM_IH4     (3rd-order accurate)
                                ! PQM_IH4IH3  (4th-order accurate)
                                ! PQM_IH6IH5  (5th-order accurate)
INIT_LAYERS_FROM_Z_FILE = True  !   [Boolean] default = False
                                ! If true, intialize the layer thicknesses, temperatures,
                                ! and salnities from a Z-space file on a latitude-
                                ! longitude grid.
TEMP_SALT_Z_INIT_FILE = "WOA05_pottemp_salt_180829.nc" ! default = "temp_salt_z.nc"
                                ! The name of the z-space input file used to initialize
                                ! the layer thicknesses, temperatures and salinities.
Z_INIT_FILE_PTEMP_VAR = "PTEMP" ! default = "ptemp"
                                ! The name of the potential temperature variable in
                                ! TEMP_SALT_Z_INIT_FILE.
Z_INIT_FILE_SALT_VAR = "SALT"   ! default = "salt"
                                ! The name of the salinity variable in
                                ! TEMP_SALT_Z_INIT_FILE.
! === module MOM_lateral_mixing_coeffs ===
USE_VARIABLE_MIXING = True      !   [Boolean] default = False
                                ! If true, the variable mixing code will be called.  This
                                ! allows diagnostics to be created even if the scheme is
                                ! not used.  If KHTR_SLOPE_CFF>0 or  KhTh_Slope_Cff>0,
                                ! this is set to true regardless of what is in the
                                ! parameter file.
RESOLN_SCALED_KH = True         !   [Boolean] default = False
                                ! If true, the Laplacian lateral viscosity is scaled away
                                ! when the first baroclinic deformation radius is well
                                ! resolved.
RESOLN_SCALED_KHTH = True       !   [Boolean] default = False
                                ! If true, the interface depth diffusivity is scaled away
                                ! when the first baroclinic deformation radius is well
                                ! resolved.
USE_STORED_SLOPES = True        !   [Boolean] default = False
                                ! If true, the isopycnal slopes are calculated once and
                                ! stored for re-use. This uses more memory but avoids calling
                                ! the equation of state more times than should be necessary.

! === module MOM_neutral_diffusion ===
! This module implements neutral diffusion of tracers
USE_NEUTRAL_DIFFUSION = True    !   [Boolean] default = False
                                ! If true, enables the neutral diffusion module.

! === module MOM_set_diffusivity ===
SIMPLE_TKE_TO_KD = True         !   [Boolean] default = False
                                ! If true, uses a simple estimate of Kd/TKE that will
                                ! work for arbitrary vertical coordinates. If false,
                                ! calculates Kd/TKE and bounds based on exact energetics/nfor an isopycnal layer-formulation.

! === module MOM_coord_initialization ===
REGRIDDING_COORDINATE_MODE = "Z*" ! default = "LAYER"
                                ! Coordinate mode for vertical regridding.
                                ! Choose among the following possibilities:
                                !  LAYER - Isopycnal or stacked shallow water layers
                                !  ZSTAR, Z* - stetched geopotential z*
                                !  SIGMA_SHELF_ZSTAR - stetched geopotential z* ignoring shelf
                                !  SIGMA - terrain following coordinates
                                !  RHO   - continuous isopycnal
                                !  HYCOM1 - HyCOM-like hybrid coordinate
                                !  SLIGHT - stretched coordinates above continuous isopycnal
                                !  ADAPTIVE - optimize for smooth neutral density surfaces
ALE_COORDINATE_CONFIG = "FILE:ocean_vgrid_180829.nc,dz" ! default = "UNIFORM"
                                ! Determines how to specify the coordinate
                                ! resolution. Valid options are:
                                !  PARAM       - use the vector-parameter ALE_RESOLUTION
                                !  UNIFORM[:N] - uniformly distributed
                                !  FILE:string - read from a file. The string specifies
                                !                the filename and variable name, separated
                                !                by a comma or space, e.g. FILE:lev.nc,dz
                                !                or FILE:lev.nc,interfaces=zw
                                !  WOA09[:N]   - the WOA09 vertical grid (approximately)
                                !  FNC1:string - FNC1:dz_min,H_total,power,precision
                                !  HYBRID:string - read from a file. The string specifies
                                !                the filename and two variable names, separated
                                !                by a comma or space, for sigma-2 and dz. e.g.
                                !                HYBRID:vgrid.nc,sigma2,dz

! === module MOM_wave_speed ===
ETA_TOLERANCE = 1.0E-06         !   [m] default = 3.15E-09
                                ! The tolerance for the differences between the
                                ! barotropic and baroclinic estimates of the sea surface
                                ! height due to the fluxes through each face.  The total
                                ! tolerance for SSH is 4 times this value.  The default
                                ! is 0.5*NK*ANGSTROM, and this should not be set less x
                                ! than about 10^-15*MAXIMUM_DEPTH.
VELOCITY_TOLERANCE = 1.0E-04    !   [m s-1] default = 3.0E+08
                                ! The tolerance for barotropic velocity discrepancies
                                ! between the barotropic solution and  the sum of the
                                ! layer thicknesses.
BOUND_CORIOLIS = True           !   [Boolean] default = False
                                ! If true, the Coriolis terms at u-points are bounded by
                                ! the four estimates of (f+rv)v from the four neighboring
                                ! v-points, and similarly at v-points.  This option would
                                ! have no effect on the SADOURNY Coriolis scheme if it
                                ! were possible to use centered difference thickness fluxes.

! === module MOM_tidal_forcing ===
TIDE_M2 = True                  !   [Boolean] default = False
                                ! If true, apply tidal momentum forcing at the M2
                                ! frequency. This is only used if TIDES is true.
TIDE_SAL_SCALAR_VALUE = 0.094   !   [m m-1]
                                ! The constant of proportionality between sea surface
                                ! height (really it should be bottom pressure) anomalies
                                ! and bottom geopotential anomalies. This is only used if
                                ! TIDES and TIDE_USE_SAL_SCALAR are true.
MASS_WEIGHT_IN_PRESSURE_GRADIENT = True !   [Boolean] default = False
                                ! If true, use mass weighting when interpolation T/S for
                                ! top/bottom integrals in AFV pressure gradient calculation.

! === module MOM_hor_visc ===
LAPLACIAN = True                !   [Boolean] default = False
                                ! If true, use a Laplacian horizontal viscosity.
KH_VEL_SCALE = 0.01             !   [m s-1] default = 0.0
                                ! The velocity scale which is multiplied by the grid
                                ! spacing to calculate the Laplacian viscosity.
                                ! The final viscosity is the largest of this scaled
                                ! viscosity, the Smagorinsky viscosity and KH.
AH_VEL_SCALE = 0.05             !   [m s-1] default = 0.0
                                ! The velocity scale which is multiplied by the cube of
                                ! the grid spacing to calculate the Laplacian viscosity.
                                ! The final viscosity is the largest of this scaled
                                ! viscosity, the Smagorinsky viscosity and AH.
SMAGORINSKY_AH = True           !   [Boolean] default = False
                                ! If true, use a biharmonic Smagorinsky nonlinear eddy
                                ! viscosity.
SMAG_BI_CONST = 0.06            !   [nondim] default = 0.0
                                ! The nondimensional biharmonic Smagorinsky constant,
                                ! typically 0.015 - 0.06.

! === module MOM_vert_friction ===
HMIX_FIXED = 0.5                !   [m]
                                ! The prescribed depth over which the near-surface
                                ! viscosity and diffusivity are elevated when the bulk
                                ! mixed layer is not used.
CHANNEL_DRAG = True             !   [Boolean] default = False
                                ! If true, the bottom drag is exerted directly on each
                                ! layer proportional to the fraction of the bottom it
                                ! overlies.
!DYNAMIC_VISCOUS_ML = True       !   [Boolean] default = False
                                ! If true, use a bulk Richardson number criterion to
                                ! determine the mixed layer thickness for viscosity.
PRANDTL_TURB = 1.0              !   [nondim] default = 0.0
                                ! The turbulent Prandtl number applied to shear
                                ! instability.
U_TRUNC_FILE = "U_velocity_truncations" ! default = ""
                                ! The absolute path to a file into which the accelerations
                                ! leading to zonal velocity truncations are written.
                                ! Undefine this for efficiency if this diagnostic is not
                                ! needed.
V_TRUNC_FILE = "V_velocity_truncations" ! default = ""
                                ! The absolute path to a file into which the accelerations
                                ! leading to meridional velocity truncations are written.
                                ! Undefine this for efficiency if this diagnostic is not
                                ! needed.
KV = 1.0E-04                    !   [m2 s-1]
                                ! The background kinematic viscosity in the interior.
                                ! The molecular value, ~1e-6 m2 s-1, may be used.
ADD_KV_SLOW = False             !   [Boolean] default = False
                                ! If true, the background vertical viscosity in the interior
                                ! (i.e., tidal + background + shear + convenction) is addded
                                ! when computing the coupling coefficient. The purpose of this
                                ! flag is to be able to recover previous answers and it will likely
                                ! be removed in the future since this option should always be true.
HBBL = 10.0                     !   [m]
                                ! The thickness of a bottom boundary layer with a
                                ! viscosity of KVBBL if BOTTOMDRAGLAW is not defined, or
                                ! the thickness over which near-bottom velocities are
                                ! averaged for the drag law if BOTTOMDRAGLAW is defined
                                ! but LINEAR_DRAG is not.
MAXVEL = 6.0                    !   [m s-1] default = 3.0E+08
                                ! The maximum velocity allowed before the velocity
                                ! components are truncated.
CFL_TRUNCATE_RAMP_TIME = 7200.0 !   [s] default = 0.0
                                ! The time over which the CFL trunction value is ramped
                                ! up at the beginning of the run.

! === module MOM_initialize_layers_from_Z ===
Z_INIT_ALE_REMAPPING = True     !   [Boolean] default = False
                                ! If True, then remap straight to model coordinate from file.

! === module MOM_PointAccel ===
INTERPOLATE_RES_FN = False      !   [Boolean] default = True
                                ! If true, interpolate the resolution function to the
                                ! velocity points from the thickness points; otherwise
                                ! interpolate the wave speed and calculate the resolution
                                ! function independently at each point.
GILL_EQUATORIAL_LD = True       !   [Boolean] default = False
                                ! If true, uses Gill's definition of the baroclinic
                                ! equatorial deformation radius, otherwise, if false, use
                                ! Pedlosky's definition. These definitions differ by a factor