! Blank file in which we can put "overrides" for parameters
NK = 60
#override USE_REGRIDDING = True
#override BULKMIXEDLAYER = False
#override COORD_FILE = "Layer_coord50.nc"
USE_STORED_SLOPES = True
USE_NEUTRAL_DIFFUSION = True
SIMPLE_TKE_TO_KD = True
REGRIDDING_COORDINATE_MODE = "Z*"
ALE_COORDINATE_CONFIG = "FILE:ocean_vgrid.nc,dz"
HMIX_FIXED = 0.5
CFL_TRUNCATE_RAMP_TIME = 7200.
Z_INIT_ALE_REMAPPING = True
ENERGETICS_SFC_PBL = True
TOPO_FILE = "ocean_topog.nc"
#override DEBUG=False
