! Generated by Generate_IC_Files.ipynb
F_0 = 7.63418e-05
INPUTDIR = "INPUT/BATS"
CESM_INPUTDIR = "INPUT/BATS"
SOUTHLAT = 31.66067
WESTLON = -64.01870
CHL_FROM_FILE = FALSE
READ_RIV_FLUXES = FALSE
