! Generated by Generate_IC_Files.ipynb
F_0 = 3.76664e-05
INPUTDIR = "INPUT/ARAB"
CESM_INPUTDIR = "INPUT/ARAB"
SOUTHLAT = 15.00925
WESTLON = 62.00000
CHL_FROM_FILE = FALSE
READ_RIV_FLUXES = FALSE
