! Generated by Generate_IC_Files.ipynb
F_0 = 1.58655e-07
INPUTDIR = "INPUT/EQPAC"
CESM_INPUTDIR = "INPUT/EQPAC"
SOUTHLAT = 0.06250
WESTLON = -140.00000
CHL_FROM_FILE = FALSE
READ_RIV_FLUXES = FALSE
