! Generated by Generate_IC_Files.ipynb
F_0 = 1.58655e-07
INPUTDIR = "INPUT/EQPAC"
CESM_INPUTDIR = "INPUT/EQPAC"
CHL_FROM_FILE = FALSE
READ_RIV_FLUXES = FALSE
