! Generated by Generate_IC_Files.ipynb
F_0 = 1.11704e-04
INPUTDIR = "INPUT/STNP"
CESM_INPUTDIR = "INPUT/STNP"
SOUTHLAT = 50.17623
WESTLON = -144.85175
CHL_FROM_FILE = FALSE
READ_RIV_FLUXES = FALSE
