! Generated by create_data.m
F_0 = 7.59943e-05
INPUTDIR = "INPUT/BATS"
CESM_INPUTDIR = "INPUT/BATS"
READ_NDEP = FALSE
READ_RIV_FLUXES = FALSE
