! Generated by Generate_IC_Files.ipynb
F_0 = 1.06259e-04
INPUTDIR = "INPUT/NABE"
CESM_INPUTDIR = "INPUT/NABE"
SOUTHLAT = 46.93538
WESTLON = -19.09770
CHL_FROM_FILE = FALSE
READ_RIV_FLUXES = FALSE
