! Generated by Generate_IC_Files.ipynb
F_0 = 5.65179e-05
INPUTDIR = "INPUT/HOT"
CESM_INPUTDIR = "INPUT/HOT"
CHL_FROM_FILE = FALSE
READ_RIV_FLUXES = FALSE
