! Generated by Generate_IC_Files.ipynb
F_0 = 7.63418e-05
INPUTDIR = "INPUT/CESM_MOM_COLUMNS/BATS"
CESM_INPUTDIR = "INPUT/CESM_MOM_COLUMNS/BATS"
CHL_FROM_FILE = FALSE
READ_RIV_FLUXES = FALSE
