"MOM6 diagnostic fields table for CESM case: c.e20.CMOM.T62_t061.test_repro.001"
1 1 1 0 0 0
### Section-1: File List
#========================
"case.hm%4yr-%2mo-%2dy",                   1, "days",   1, "days",   "time", 1, "days"
"case.h%4yr-%2mo-%2dy",                    1, "days",   1, "days",   "time", 1, "days"
"case.sfc%4yr-%2mo-%2dy",                  1, "days",   1, "days",   "time", 1, "days"
"case.static",                            -1, "days",   1, "days",   "time"
"marbl%4yr-%2mo-%2dy",                     1, "days",   1, "days",   "time", 1, "days"
"marbl2%4yr-%2mo-%2dy",                    1, "days",   1, "days",   "time", 1, "days"

### Section-2: Fields List
#=========================

# "case.hm%4yr-%2mo-%2dy"
"ocean_model", "uo",           "uo",           "case.hm%4yr-%2mo-%2dy", "all", "mean", "none", 1
"ocean_model", "vo",           "vo",           "case.hm%4yr-%2mo-%2dy", "all", "mean", "none", 1
"ocean_model", "h",            "h",            "case.hm%4yr-%2mo-%2dy", "all", "mean", "none", 1
"ocean_model", "e",            "e",            "case.hm%4yr-%2mo-%2dy", "all", "mean", "none", 1
"ocean_model", "thetao",       "thetao",       "case.hm%4yr-%2mo-%2dy", "all", "mean", "none", 1
"ocean_model", "so",           "so",           "case.hm%4yr-%2mo-%2dy", "all", "mean", "none", 1
"ocean_model", "PO4",          "PO4",          "case.hm%4yr-%2mo-%2dy", "all", "mean", "none", 1
"ocean_model", "NO3",          "NO3",          "case.hm%4yr-%2mo-%2dy", "all", "mean", "none", 1
"ocean_model", "SiO3",         "SiO3",         "case.hm%4yr-%2mo-%2dy", "all", "mean", "none", 1
"ocean_model", "NH4",          "NH4",          "case.hm%4yr-%2mo-%2dy", "all", "mean", "none", 1
"ocean_model", "Fe",           "Fe",           "case.hm%4yr-%2mo-%2dy", "all", "mean", "none", 1
"ocean_model", "Lig",          "Lig",          "case.hm%4yr-%2mo-%2dy", "all", "mean", "none", 1
"ocean_model", "O2",           "O2",           "case.hm%4yr-%2mo-%2dy", "all", "mean", "none", 1
"ocean_model", "DIC",          "DIC",          "case.hm%4yr-%2mo-%2dy", "all", "mean", "none", 1
"ocean_model", "DIC_ALT_CO2",  "DIC_ALT_CO2",  "case.hm%4yr-%2mo-%2dy", "all", "mean", "none", 1
"ocean_model", "ALK",          "ALK",          "case.hm%4yr-%2mo-%2dy", "all", "mean", "none", 1
"ocean_model", "ALK_ALT_CO2",  "ALK_ALT_CO2",  "case.hm%4yr-%2mo-%2dy", "all", "mean", "none", 1
"ocean_model", "DOC",          "DOC",          "case.hm%4yr-%2mo-%2dy", "all", "mean", "none", 1
"ocean_model", "DON",          "DON",          "case.hm%4yr-%2mo-%2dy", "all", "mean", "none", 1
"ocean_model", "DOP",          "DOP",          "case.hm%4yr-%2mo-%2dy", "all", "mean", "none", 1
"ocean_model", "DOPr",         "DOPr",         "case.hm%4yr-%2mo-%2dy", "all", "mean", "none", 1
"ocean_model", "DONr",         "DONr",         "case.hm%4yr-%2mo-%2dy", "all", "mean", "none", 1
"ocean_model", "DOCr",         "DOCr",         "case.hm%4yr-%2mo-%2dy", "all", "mean", "none", 1
"ocean_model", "microzooC",    "microzooC",    "case.hm%4yr-%2mo-%2dy", "all", "mean", "none", 1
"ocean_model", "mesozooC",     "mesozooC",     "case.hm%4yr-%2mo-%2dy", "all", "mean", "none", 1
"ocean_model", "spChl",        "spChl",        "case.hm%4yr-%2mo-%2dy", "all", "mean", "none", 1
"ocean_model", "spC",          "spC",          "case.hm%4yr-%2mo-%2dy", "all", "mean", "none", 1
"ocean_model", "spP",          "spP",          "case.hm%4yr-%2mo-%2dy", "all", "mean", "none", 1
"ocean_model", "spFe",         "spFe",         "case.hm%4yr-%2mo-%2dy", "all", "mean", "none", 1
"ocean_model", "coccoChl",     "coccoChl",     "case.hm%4yr-%2mo-%2dy", "all", "mean", "none", 1
"ocean_model", "coccoC",       "coccoC",       "case.hm%4yr-%2mo-%2dy", "all", "mean", "none", 1
"ocean_model", "coccoP",       "coccoP",       "case.hm%4yr-%2mo-%2dy", "all", "mean", "none", 1
"ocean_model", "coccoFe",      "coccoFe",      "case.hm%4yr-%2mo-%2dy", "all", "mean", "none", 1
"ocean_model", "coccoCaCO3",   "coccoCaCO3",   "case.hm%4yr-%2mo-%2dy", "all", "mean", "none", 1
"ocean_model", "diatChl",      "diatChl",      "case.hm%4yr-%2mo-%2dy", "all", "mean", "none", 1
"ocean_model", "diatC",        "diatC",        "case.hm%4yr-%2mo-%2dy", "all", "mean", "none", 1
"ocean_model", "diatP",        "diatP",        "case.hm%4yr-%2mo-%2dy", "all", "mean", "none", 1
"ocean_model", "diatFe",       "diatFe",       "case.hm%4yr-%2mo-%2dy", "all", "mean", "none", 1
"ocean_model", "diatSi",       "diatSi",       "case.hm%4yr-%2mo-%2dy", "all", "mean", "none", 1
"ocean_model", "diazChl",      "diazChl",      "case.hm%4yr-%2mo-%2dy", "all", "mean", "none", 1
"ocean_model", "diazC",        "diazC",        "case.hm%4yr-%2mo-%2dy", "all", "mean", "none", 1
"ocean_model", "diazP",        "diazP",        "case.hm%4yr-%2mo-%2dy", "all", "mean", "none", 1
"ocean_model", "diazFe",       "diazFe",       "case.hm%4yr-%2mo-%2dy", "all", "mean", "none", 1
"ocean_model", "rhoinsitu",    "rhoinsitu",    "case.hm%4yr-%2mo-%2dy", "all", "mean", "none", 1
"ocean_model", "KE",           "KE",           "case.hm%4yr-%2mo-%2dy", "all", "mean", "none", 1
"ocean_model", "rhopot0",      "rhopot0",      "case.hm%4yr-%2mo-%2dy", "all", "mean", "none", 1
"ocean_model", "soga",         "soga",         "case.hm%4yr-%2mo-%2dy", "all", "mean", "none", 1
"ocean_model", "thetaoga",     "thetaoga",     "case.hm%4yr-%2mo-%2dy", "all", "mean", "none", 1
"ocean_model", "uh",           "uh",           "case.hm%4yr-%2mo-%2dy", "all", "mean", "none", 1
"ocean_model", "vh",           "vh",           "case.hm%4yr-%2mo-%2dy", "all", "mean", "none", 1
"ocean_model", "vhbt",         "vhbt",         "case.hm%4yr-%2mo-%2dy", "all", "mean", "none", 1
"ocean_model", "uhbt",         "uhbt",         "case.hm%4yr-%2mo-%2dy", "all", "mean", "none", 1
"ocean_model", "KPP_OBLdepth", "oml",          "case.hm%4yr-%2mo-%2dy", "all", "mean", "none", 1
"ocean_model", "tauuo",        "tauuo",        "case.hm%4yr-%2mo-%2dy", "all", "mean", "none", 1
"ocean_model", "tauvo",        "tauvo",        "case.hm%4yr-%2mo-%2dy", "all", "mean", "none", 1
#"ocean_model", "friver",       "friver",       "case.hm%4yr-%2mo-%2dy", "all", "mean", "none", 1
#"ocean_model", "prsn",         "prsn",         "case.hm%4yr-%2mo-%2dy", "all", "mean", "none", 1
#"ocean_model", "prlq",         "prlq",         "case.hm%4yr-%2mo-%2dy", "all", "mean", "none", 1
#"ocean_model", "evs",          "evs",          "case.hm%4yr-%2mo-%2dy", "all", "mean", "none", 1
#"ocean_model", "hfsso",        "hfsso",        "case.hm%4yr-%2mo-%2dy", "all", "mean", "none", 1
#"ocean_model", "rlntds",       "rlntds",       "case.hm%4yr-%2mo-%2dy", "all", "mean", "none", 1
#"ocean_model", "hfsnthermds",  "hfsnthermds",  "case.hm%4yr-%2mo-%2dy", "all", "mean", "none", 1
#"ocean_model", "sfdsi",        "sfdsi",        "case.hm%4yr-%2mo-%2dy", "all", "mean", "none", 1
#"ocean_model", "rsntds",       "rsntds",       "case.hm%4yr-%2mo-%2dy", "all", "mean", "none", 1
#"ocean_model", "hfds",         "hfds",         "case.hm%4yr-%2mo-%2dy", "all", "mean", "none", 1
#"ocean_model", "ustar",        "ustar",        "case.hm%4yr-%2mo-%2dy", "all", "mean", "none", 1
#"ocean_model", "hfsifrazil",   "hfsifrazil",   "case.hm%4yr-%2mo-%2dy", "all", "mean", "none", 1
#"ocean_model", "wfo",          "wfo",          "case.hm%4yr-%2mo-%2dy", "all", "mean", "none", 1
#"ocean_model", "vprec",        "vprec",        "case.hm%4yr-%2mo-%2dy", "all", "mean", "none", 1
#"ocean_model", "ficeberg",     "ficeberg",     "case.hm%4yr-%2mo-%2dy", "all", "mean", "none", 1
#"ocean_model", "fsitherm",     "fsitherm",     "case.hm%4yr-%2mo-%2dy", "all", "mean", "none", 1
#"ocean_model", "hflso",        "hflso",        "case.hm%4yr-%2mo-%2dy", "all", "mean", "none", 1
#"ocean_model", "pso",          "pso",          "case.hm%4yr-%2mo-%2dy", "all", "mean", "none", 1
#"ocean_model", "seaice_melt_heat","seaice_melt_heat","case.hm%4yr-%2mo-%2dy", "all", "mean", "none", 1
#"ocean_model", "Heat_PmE",     "Heat_PmE",     "case.hm%4yr-%2mo-%2dy", "all", "mean", "none", 1
#"ocean_model", "salt_flux_added","salt_flux_added","case.hm%4yr-%2mo-%2dy", "all", "mean", "none", 1
#"ocean_model", "SSH",          "SSH",          "case.hm%4yr-%2mo-%2dy", "all", "mean", "none", 1
#"ocean_model", "tos",          "tos",          "case.hm%4yr-%2mo-%2dy", "all", "mean", "none", 1
#"ocean_model", "sos",          "sos",          "case.hm%4yr-%2mo-%2dy", "all", "mean", "none", 1
#"ocean_model", "SSU",          "SSU",          "case.hm%4yr-%2mo-%2dy", "all", "mean", "none", 1
#"ocean_model", "SSV",          "SSV",          "case.hm%4yr-%2mo-%2dy", "all", "mean", "none", 1
#"ocean_model", "mass_wt",      "mass_wt",      "case.hm%4yr-%2mo-%2dy", "all", "mean", "none", 1
#"ocean_model", "opottempmint", "opottempmint", "case.hm%4yr-%2mo-%2dy", "all", "mean", "none", 1
#"ocean_model", "somint",       "somint",       "case.hm%4yr-%2mo-%2dy", "all", "mean", "none", 1
#"ocean_model", "Rd_dx",        "Rd_dx",        "case.hm%4yr-%2mo-%2dy", "all", "mean", "none", 1
#"ocean_model", "speed",        "speed",        "case.hm%4yr-%2mo-%2dy", "all", "mean", "none", 1
#"ocean_model", "mlotst",       "mlotst",       "case.hm%4yr-%2mo-%2dy", "all", "mean", "none", 1
#"ocean_model", "diftrelo",     "diftrelo",     "case.hm%4yr-%2mo-%2dy", "all", "mean", "none", 1
#"ocean_model", "diftrblo",     "diftrblo",     "case.hm%4yr-%2mo-%2dy", "all", "mean", "none", 1
#"ocean_model", "difmxybo",     "difmxybo",     "case.hm%4yr-%2mo-%2dy", "all", "mean", "none", 1
#"ocean_model", "difmxylo",     "difmxylo",     "case.hm%4yr-%2mo-%2dy", "all", "mean", "none", 1
#"ocean_model", "volcello",     "volcello",     "case.hm%4yr-%2mo-%2dy", "all", "mean", "none", 1
"ocean_model", "vmo",          "vmo",          "case.hm%4yr-%2mo-%2dy", "all", "mean", "none", 1
"ocean_model", "vhGM",         "vhGM",         "case.hm%4yr-%2mo-%2dy", "all", "mean", "none", 1
"ocean_model", "vhml",         "vhml",         "case.hm%4yr-%2mo-%2dy", "all", "mean", "none", 1
"ocean_model", "umo",          "umo",          "case.hm%4yr-%2mo-%2dy", "all", "mean", "none", 1
"ocean_model", "uhGM",         "uhGM",         "case.hm%4yr-%2mo-%2dy", "all", "mean", "none", 1
"ocean_model", "uhml",         "uhml",         "case.hm%4yr-%2mo-%2dy", "all", "mean", "none", 1
"ocean_model", "agessc",       "agessc",       "case.hm%4yr-%2mo-%2dy", "all", "mean", "none", 1
"ocean_model", "T_ady_2d",     "T_ady_2d",     "case.hm%4yr-%2mo-%2dy", "all", "mean", "none", 1
"ocean_model", "T_adx_2d",     "T_adx_2d",     "case.hm%4yr-%2mo-%2dy", "all", "mean", "none", 1
"ocean_model", "T_diffy_2d",   "T_diffy_2d",   "case.hm%4yr-%2mo-%2dy", "all", "mean", "none", 1
"ocean_model", "T_diffx_2d",   "T_diffx_2d",   "case.hm%4yr-%2mo-%2dy", "all", "mean", "none", 1

# "case.h%4yr-%2mo-%2dy"
"ocean_model_z", "uo",       "uo",       "case.h%4yr-%2mo-%2dy", "all", "mean", "none", 1
"ocean_model_z", "vo",       "vo",       "case.h%4yr-%2mo-%2dy", "all", "mean", "none", 1
"ocean_model_z", "h",        "h",        "case.h%4yr-%2mo-%2dy", "all", "mean", "none", 1
"ocean_model_z", "e",        "e",        "case.h%4yr-%2mo-%2dy", "all", "mean", "none", 1
"ocean_model_z", "thetao",   "thetao",   "case.h%4yr-%2mo-%2dy", "all", "mean", "none", 1
"ocean_model_z", "so",       "so",       "case.h%4yr-%2mo-%2dy", "all", "mean", "none", 1
"ocean_model_z", "rhoinsitu","rhoinsitu","case.h%4yr-%2mo-%2dy", "all", "mean", "none", 1
"ocean_model_z", "KE",       "KE",       "case.h%4yr-%2mo-%2dy", "all", "mean", "none", 1
"ocean_model_z", "rhopot0",  "rhopot0",  "case.h%4yr-%2mo-%2dy", "all", "mean", "none", 1

# "case.sfc%yr4"
"ocean_model", "SSH",          "SSH",          "case.sfc%4yr-%2mo-%2dy", "all", "mean", "none", 1
"ocean_model", "tos",          "tos",          "case.sfc%4yr-%2mo-%2dy", "all", "mean", "none", 1
"ocean_model", "sos",          "sos",          "case.sfc%4yr-%2mo-%2dy", "all", "mean", "none", 1
"ocean_model", "SSU",          "SSU",          "case.sfc%4yr-%2mo-%2dy", "all", "mean", "none", 1
"ocean_model", "SSV",          "SSV",          "case.sfc%4yr-%2mo-%2dy", "all", "mean", "none", 1
"ocean_model", "mass_wt",      "mass_wt",      "case.sfc%4yr-%2mo-%2dy", "all", "mean", "none", 1
"ocean_model", "opottempmint", "opottempmint", "case.sfc%4yr-%2mo-%2dy", "all", "mean", "none", 1
"ocean_model", "somint",       "somint",       "case.sfc%4yr-%2mo-%2dy", "all", "mean", "none", 1
"ocean_model", "Rd_dx",        "Rd_dx",        "case.sfc%4yr-%2mo-%2dy", "all", "mean", "none", 1
"ocean_model", "speed",        "speed",        "case.sfc%4yr-%2mo-%2dy", "all", "mean", "none", 1
"ocean_model", "mlotst",       "mlotst",       "case.sfc%4yr-%2mo-%2dy", "all", "mean", "none", 1
"ocean_model", "KPP_OBLdepth", "oml",          "case.sfc%4yr-%2mo-%2dy", "all", "mean", "none", 1

# "case.static"
"ocean_model", "geolon",     "geolon",     "case.static", "all", ".false.", "none", 1
"ocean_model", "geolat",     "geolat",     "case.static", "all", ".false.", "none", 1
"ocean_model", "geolon_c",   "geolon_c",   "case.static", "all", ".false.", "none", 1
"ocean_model", "geolat_c",   "geolat_c",   "case.static", "all", ".false.", "none", 1
"ocean_model", "geolon_u",   "geolon_u",   "case.static", "all", ".false.", "none", 1
"ocean_model", "geolat_u",   "geolat_u",   "case.static", "all", ".false.", "none", 1
"ocean_model", "geolon_v",   "geolon_v",   "case.static", "all", ".false.", "none", 1
"ocean_model", "geolat_v",   "geolat_v",   "case.static", "all", ".false.", "none", 1
"ocean_model", "area_t",     "area_t",     "case.static", "all", ".false.", "none", 1
"ocean_model", "depth_ocean","depth_ocean","case.static", "all", ".false.", "none", 1
"ocean_model", "wet",        "wet",        "case.static", "all", ".false.", "none", 1
"ocean_model", "wet_c",      "wet_c",      "case.static", "all", ".false.", "none", 1
"ocean_model", "wet_u",      "wet_u",      "case.static", "all", ".false.", "none", 1
"ocean_model", "wet_v",      "wet_v",      "case.static", "all", ".false.", "none", 1
"ocean_model", "Coriolis",   "Coriolis",   "case.static", "all", ".false.", "none", 1

# marbl diagnostics:
#===================
"ocean_model", "rsdoabsorb", "rsdoabsorb", "marbl%4yr-%2mo-%2dy", "all", .false., "none", 2
"ocean_model", "ECOSYS_IFRAC", "ECOSYS_IFRAC", "marbl%4yr-%2mo-%2dy", "all", .false., "none", 2
"ocean_model", "ECOSYS_XKW", "ECOSYS_XKW", "marbl%4yr-%2mo-%2dy", "all", .false., "none", 2
"ocean_model", "ECOSYS_ATM_PRESS", "ECOSYS_ATM_PRESS", "marbl%4yr-%2mo-%2dy", "all", .false., "none", 2
#"ocean_model", "PV_O2", "PV_O2", "marbl%4yr-%2mo-%2dy", "all", .false., "none", 2
"ocean_model", "SCHMIDT_O2", "SCHMIDT_O2", "marbl%4yr-%2mo-%2dy", "all", .false., "none", 2
"ocean_model", "O2SAT", "O2SAT", "marbl%4yr-%2mo-%2dy", "all", .false., "none", 2
"ocean_model", "CO2STAR", "CO2STAR", "marbl%4yr-%2mo-%2dy", "all", .false., "none", 2
"ocean_model", "DCO2STAR", "DCO2STAR", "marbl%4yr-%2mo-%2dy", "all", .false., "none", 2
"ocean_model", "pCO2SURF", "pCO2SURF", "marbl%4yr-%2mo-%2dy", "all", .false., "none", 2
"ocean_model", "DpCO2", "DpCO2", "marbl%4yr-%2mo-%2dy", "all", .false., "none", 2
#"ocean_model", "PV_CO2", "PV_CO2", "marbl%4yr-%2mo-%2dy", "all", .false., "none", 2
"ocean_model", "SCHMIDT_CO2", "SCHMIDT_CO2", "marbl%4yr-%2mo-%2dy", "all", .false., "none", 2
"ocean_model", "FG_CO2", "FG_CO2", "marbl%4yr-%2mo-%2dy", "all", .false., "none", 2
"ocean_model", "PH", "PH", "marbl%4yr-%2mo-%2dy", "all", .false., "none", 2
"ocean_model", "ATM_CO2", "ATM_CO2", "marbl%4yr-%2mo-%2dy", "all", .false., "none", 2
"ocean_model", "CO2STAR_ALT_CO2", "CO2STAR_ALT_CO2", "marbl%4yr-%2mo-%2dy", "all", .false., "none", 2
"ocean_model", "DCO2STAR_ALT_CO2", "DCO2STAR_ALT_CO2", "marbl%4yr-%2mo-%2dy", "all", .false., "none", 2
#"ocean_model", "pCO2SURF_ALT_CO2", "pCO2SURF_ALT_CO2", "marbl%4yr-%2mo-%2dy", "all", .false., "none", 2
"ocean_model", "DpCO2_ALT_CO2", "DpCO2_ALT_CO2", "marbl%4yr-%2mo-%2dy", "all", .false., "none", 2
"ocean_model", "FG_ALT_CO2", "FG_ALT_CO2", "marbl%4yr-%2mo-%2dy", "all", .false., "none", 2
"ocean_model", "PH_ALT_CO2", "PH_ALT_CO2", "marbl%4yr-%2mo-%2dy", "all", .false., "none", 2
"ocean_model", "ATM_ALT_CO2", "ATM_ALT_CO2", "marbl%4yr-%2mo-%2dy", "all", .false., "none", 2
"ocean_model", "IRON_FLUX", "IRON_FLUX", "marbl%4yr-%2mo-%2dy", "all", .false., "none", 2
"ocean_model", "DUST_FLUX", "DUST_FLUX", "marbl%4yr-%2mo-%2dy", "all", .false., "none", 2
"ocean_model", "NOx_FLUX", "NOx_FLUX", "marbl%4yr-%2mo-%2dy", "all", .false., "none", 2
"ocean_model", "NHy_FLUX", "NHy_FLUX", "marbl%4yr-%2mo-%2dy", "all", .false., "none", 2
"ocean_model", "NHx_SURFACE_EMIS", "NHx_SURFACE_EMIS", "marbl%4yr-%2mo-%2dy", "all", .false., "none", 2
"ocean_model", "zsatcalc", "zsatcalc", "marbl%4yr-%2mo-%2dy", "all", .false., "none", 2
"ocean_model", "zsatarag", "zsatarag", "marbl%4yr-%2mo-%2dy", "all", .false., "none", 2
"ocean_model", "O2_ZMIN", "O2_ZMIN", "marbl%4yr-%2mo-%2dy", "all", .false., "none", 2
"ocean_model", "O2_ZMIN_DEPTH", "O2_ZMIN_DEPTH", "marbl%4yr-%2mo-%2dy", "all", .false., "none", 2
"ocean_model", "photoC_TOT_zint", "photoC_TOT_zint", "marbl%4yr-%2mo-%2dy", "all", .false., "none", 2
"ocean_model", "photoC_TOT_zint_100m", "photoC_TOT_zint_100m", "marbl%4yr-%2mo-%2dy", "all", .false., "none", 2
"ocean_model", "photoC_NO3_TOT_zint", "photoC_NO3_TOT_zint", "marbl%4yr-%2mo-%2dy", "all", .false., "none", 2
"ocean_model", "photoC_NO3_TOT_zint_100m", "photoC_NO3_TOT_zint_100m", "marbl%4yr-%2mo-%2dy", "all", .false., "none", 2
"ocean_model", "DOC_prod_zint", "DOC_prod_zint", "marbl%4yr-%2mo-%2dy", "all", .false., "none", 2
"ocean_model", "DOC_prod_zint_100m", "DOC_prod_zint_100m", "marbl%4yr-%2mo-%2dy", "all", .false., "none", 2
"ocean_model", "DOC_remin_zint", "DOC_remin_zint", "marbl%4yr-%2mo-%2dy", "all", .false., "none", 2
"ocean_model", "DOC_remin_zint_100m", "DOC_remin_zint_100m", "marbl%4yr-%2mo-%2dy", "all", .false., "none", 2
"ocean_model", "DOCr_remin_zint", "DOCr_remin_zint", "marbl%4yr-%2mo-%2dy", "all", .false., "none", 2
"ocean_model", "DOCr_remin_zint_100m", "DOCr_remin_zint_100m", "marbl%4yr-%2mo-%2dy", "all", .false., "none", 2
#"ocean_model", "Jint_Ctot", "Jint_Ctot", "marbl%4yr-%2mo-%2dy", "all", .false., "none", 2
#"ocean_model", "Jint_Ntot", "Jint_Ntot", "marbl%4yr-%2mo-%2dy", "all", .false., "none", 2
#"ocean_model", "Jint_Ptot", "Jint_Ptot", "marbl%4yr-%2mo-%2dy", "all", .false., "none", 2
#"ocean_model", "Jint_Sitot", "Jint_Sitot", "marbl%4yr-%2mo-%2dy", "all", .false., "none", 2
#"ocean_model", "Jint_Fetot", "Jint_Fetot", "marbl%4yr-%2mo-%2dy", "all", .false., "none", 2
#"ocean_model", "calcToFloor", "calcToFloor", "marbl%4yr-%2mo-%2dy", "all", .false., "none", 2
"ocean_model", "calcToSed", "calcToSed", "marbl%4yr-%2mo-%2dy", "all", .false., "none", 2
"ocean_model", "calcToSed_ALT_CO2", "calcToSed_ALT_CO2", "marbl%4yr-%2mo-%2dy", "all", .false., "none", 2
#"ocean_model", "pocToFloor", "pocToFloor", "marbl%4yr-%2mo-%2dy", "all", .false., "none", 2
"ocean_model", "pocToSed", "pocToSed", "marbl%4yr-%2mo-%2dy", "all", .false., "none", 2
"ocean_model", "ponToSed", "ponToSed", "marbl%4yr-%2mo-%2dy", "all", .false., "none", 2
"ocean_model", "SedDenitrif", "SedDenitrif", "marbl%4yr-%2mo-%2dy", "all", .false., "none", 2
#"ocean_model", "OtherRemin", "OtherRemin", "marbl%4yr-%2mo-%2dy", "all", .false., "none", 2
"ocean_model", "popToSed", "popToSed", "marbl%4yr-%2mo-%2dy", "all", .false., "none", 2
"ocean_model", "bsiToSed", "bsiToSed", "marbl%4yr-%2mo-%2dy", "all", .false., "none", 2
"ocean_model", "dustToSed", "dustToSed", "marbl%4yr-%2mo-%2dy", "all", .false., "none", 2
"ocean_model", "pfeToSed", "pfeToSed", "marbl%4yr-%2mo-%2dy", "all", .false., "none", 2
"ocean_model", "sp_N_lim_surf", "sp_N_lim_surf", "marbl%4yr-%2mo-%2dy", "all", .false., "none", 2
"ocean_model", "sp_N_lim_Cweight_avg_100m", "sp_N_lim_Cweight_avg_100m", "marbl%4yr-%2mo-%2dy", "all", .false., "none", 2
"ocean_model", "sp_P_lim_surf", "sp_P_lim_surf", "marbl%4yr-%2mo-%2dy", "all", .false., "none", 2
"ocean_model", "sp_P_lim_Cweight_avg_100m", "sp_P_lim_Cweight_avg_100m", "marbl%4yr-%2mo-%2dy", "all", .false., "none", 2
"ocean_model", "sp_Fe_lim_surf", "sp_Fe_lim_surf", "marbl%4yr-%2mo-%2dy", "all", .false., "none", 2
"ocean_model", "sp_Fe_lim_Cweight_avg_100m", "sp_Fe_lim_Cweight_avg_100m", "marbl%4yr-%2mo-%2dy", "all", .false., "none", 2
"ocean_model", "sp_light_lim_surf", "sp_light_lim_surf", "marbl%4yr-%2mo-%2dy", "all", .false., "none", 2
"ocean_model", "sp_light_lim_Cweight_avg_100m", "sp_light_lim_Cweight_avg_100m", "marbl%4yr-%2mo-%2dy", "all", .false., "none", 2
"ocean_model", "photoC_sp_zint", "photoC_sp_zint", "marbl%4yr-%2mo-%2dy", "all", .false., "none", 2
"ocean_model", "photoC_sp_zint_100m", "photoC_sp_zint_100m", "marbl%4yr-%2mo-%2dy", "all", .false., "none", 2
"ocean_model", "photoC_NO3_sp_zint", "photoC_NO3_sp_zint", "marbl%4yr-%2mo-%2dy", "all", .false., "none", 2
"ocean_model", "graze_sp_zint", "graze_sp_zint", "marbl2%4yr-%2mo-%2dy", "all", .false., "none", 2
"ocean_model", "graze_sp_zint_100m", "graze_sp_zint_100m", "marbl2%4yr-%2mo-%2dy", "all", .false., "none", 2
"ocean_model", "graze_sp_poc_zint", "graze_sp_poc_zint", "marbl2%4yr-%2mo-%2dy", "all", .false., "none", 2
"ocean_model", "graze_sp_poc_zint_100m", "graze_sp_poc_zint_100m", "marbl2%4yr-%2mo-%2dy", "all", .false., "none", 2
"ocean_model", "graze_sp_doc_zint", "graze_sp_doc_zint", "marbl2%4yr-%2mo-%2dy", "all", .false., "none", 2
"ocean_model", "graze_sp_doc_zint_100m", "graze_sp_doc_zint_100m", "marbl2%4yr-%2mo-%2dy", "all", .false., "none", 2
"ocean_model", "graze_sp_zoo_zint", "graze_sp_zoo_zint", "marbl2%4yr-%2mo-%2dy", "all", .false., "none", 2
"ocean_model", "graze_sp_zoo_zint_100m", "graze_sp_zoo_zint_100m", "marbl2%4yr-%2mo-%2dy", "all", .false., "none", 2
"ocean_model", "sp_loss_zint", "sp_loss_zint", "marbl%4yr-%2mo-%2dy", "all", .false., "none", 2
"ocean_model", "sp_loss_zint_100m", "sp_loss_zint_100m", "marbl%4yr-%2mo-%2dy", "all", .false., "none", 2
"ocean_model", "sp_loss_poc_zint", "sp_loss_poc_zint", "marbl%4yr-%2mo-%2dy", "all", .false., "none", 2
"ocean_model", "sp_loss_poc_zint_100m", "sp_loss_poc_zint_100m", "marbl%4yr-%2mo-%2dy", "all", .false., "none", 2
"ocean_model", "sp_loss_doc_zint", "sp_loss_doc_zint", "marbl%4yr-%2mo-%2dy", "all", .false., "none", 2
"ocean_model", "sp_loss_doc_zint_100m", "sp_loss_doc_zint_100m", "marbl%4yr-%2mo-%2dy", "all", .false., "none", 2
"ocean_model", "sp_agg_zint", "sp_agg_zint", "marbl%4yr-%2mo-%2dy", "all", .false., "none", 2
"ocean_model", "sp_agg_zint_100m", "sp_agg_zint_100m", "marbl%4yr-%2mo-%2dy", "all", .false., "none", 2
"ocean_model", "cocco_N_lim_surf", "cocco_N_lim_surf", "marbl%4yr-%2mo-%2dy", "all", .false., "none", 2
"ocean_model", "cocco_N_lim_Cweight_avg_100m", "cocco_N_lim_Cweight_avg_100m", "marbl%4yr-%2mo-%2dy", "all", .false., "none", 2
"ocean_model", "cocco_P_lim_surf", "cocco_P_lim_surf", "marbl%4yr-%2mo-%2dy", "all", .false., "none", 2
"ocean_model", "cocco_P_lim_Cweight_avg_100m", "cocco_P_lim_Cweight_avg_100m", "marbl%4yr-%2mo-%2dy", "all", .false., "none", 2
"ocean_model", "cocco_Fe_lim_surf", "cocco_Fe_lim_surf", "marbl%4yr-%2mo-%2dy", "all", .false., "none", 2
"ocean_model", "cocco_Fe_lim_Cweight_avg_100m", "cocco_Fe_lim_Cweight_avg_100m", "marbl%4yr-%2mo-%2dy", "all", .false., "none", 2
"ocean_model", "cocco_light_lim_surf", "cocco_light_lim_surf", "marbl%4yr-%2mo-%2dy", "all", .false., "none", 2
"ocean_model", "cocco_light_lim_Cweight_avg_100m", "cocco_light_lim_Cweight_avg_100m", "marbl%4yr-%2mo-%2dy", "all", .false., "none", 2
"ocean_model", "photoC_cocco_zint", "photoC_cocco_zint", "marbl%4yr-%2mo-%2dy", "all", .false., "none", 2
"ocean_model", "photoC_cocco_zint_100m", "photoC_cocco_zint_100m", "marbl%4yr-%2mo-%2dy", "all", .false., "none", 2
"ocean_model", "photoC_NO3_cocco_zint", "photoC_NO3_cocco_zint", "marbl%4yr-%2mo-%2dy", "all", .false., "none", 2
"ocean_model", "cocco_CaCO3_form_zint", "cocco_CaCO3_form_zint", "marbl%4yr-%2mo-%2dy", "all", .false., "none", 2
"ocean_model", "cocco_CaCO3_form_zint_100m", "cocco_CaCO3_form_zint_100m", "marbl%4yr-%2mo-%2dy", "all", .false., "none", 2
"ocean_model", "graze_cocco_zint", "graze_cocco_zint", "marbl2%4yr-%2mo-%2dy", "all", .false., "none", 2
"ocean_model", "graze_cocco_zint_100m", "graze_cocco_zint_100m", "marbl2%4yr-%2mo-%2dy", "all", .false., "none", 2
"ocean_model", "graze_cocco_poc_zint", "graze_cocco_poc_zint", "marbl2%4yr-%2mo-%2dy", "all", .false., "none", 2
"ocean_model", "graze_cocco_poc_zint_100m", "graze_cocco_poc_zint_100m", "marbl2%4yr-%2mo-%2dy", "all", .false., "none", 2
"ocean_model", "graze_cocco_doc_zint", "graze_cocco_doc_zint", "marbl2%4yr-%2mo-%2dy", "all", .false., "none", 2
"ocean_model", "graze_cocco_doc_zint_100m", "graze_cocco_doc_zint_100m", "marbl2%4yr-%2mo-%2dy", "all", .false., "none", 2
"ocean_model", "graze_cocco_zoo_zint", "graze_cocco_zoo_zint", "marbl2%4yr-%2mo-%2dy", "all", .false., "none", 2
"ocean_model", "graze_cocco_zoo_zint_100m", "graze_cocco_zoo_zint_100m", "marbl2%4yr-%2mo-%2dy", "all", .false., "none", 2
"ocean_model", "cocco_loss_zint", "cocco_loss_zint", "marbl%4yr-%2mo-%2dy", "all", .false., "none", 2
"ocean_model", "cocco_loss_zint_100m", "cocco_loss_zint_100m", "marbl%4yr-%2mo-%2dy", "all", .false., "none", 2
"ocean_model", "cocco_loss_poc_zint", "cocco_loss_poc_zint", "marbl%4yr-%2mo-%2dy", "all", .false., "none", 2
"ocean_model", "cocco_loss_poc_zint_100m", "cocco_loss_poc_zint_100m", "marbl%4yr-%2mo-%2dy", "all", .false., "none", 2
"ocean_model", "cocco_loss_doc_zint", "cocco_loss_doc_zint", "marbl%4yr-%2mo-%2dy", "all", .false., "none", 2
"ocean_model", "cocco_loss_doc_zint_100m", "cocco_loss_doc_zint_100m", "marbl%4yr-%2mo-%2dy", "all", .false., "none", 2
"ocean_model", "cocco_agg_zint", "cocco_agg_zint", "marbl%4yr-%2mo-%2dy", "all", .false., "none", 2
"ocean_model", "cocco_agg_zint_100m", "cocco_agg_zint_100m", "marbl%4yr-%2mo-%2dy", "all", .false., "none", 2
"ocean_model", "diat_N_lim_surf", "diat_N_lim_surf", "marbl%4yr-%2mo-%2dy", "all", .false., "none", 2
"ocean_model", "diat_N_lim_Cweight_avg_100m", "diat_N_lim_Cweight_avg_100m", "marbl%4yr-%2mo-%2dy", "all", .false., "none", 2
"ocean_model", "diat_P_lim_surf", "diat_P_lim_surf", "marbl%4yr-%2mo-%2dy", "all", .false., "none", 2
"ocean_model", "diat_P_lim_Cweight_avg_100m", "diat_P_lim_Cweight_avg_100m", "marbl%4yr-%2mo-%2dy", "all", .false., "none", 2
"ocean_model", "diat_Fe_lim_surf", "diat_Fe_lim_surf", "marbl%4yr-%2mo-%2dy", "all", .false., "none", 2
"ocean_model", "diat_Fe_lim_Cweight_avg_100m", "diat_Fe_lim_Cweight_avg_100m", "marbl%4yr-%2mo-%2dy", "all", .false., "none", 2
"ocean_model", "diat_SiO3_lim_surf", "diat_SiO3_lim_surf", "marbl%4yr-%2mo-%2dy", "all", .false., "none", 2
"ocean_model", "diat_SiO3_lim_Cweight_avg_100m", "diat_SiO3_lim_Cweight_avg_100m", "marbl%4yr-%2mo-%2dy", "all", .false., "none", 2
"ocean_model", "diat_light_lim_surf", "diat_light_lim_surf", "marbl%4yr-%2mo-%2dy", "all", .false., "none", 2
"ocean_model", "diat_light_lim_Cweight_avg_100m", "diat_light_lim_Cweight_avg_100m", "marbl%4yr-%2mo-%2dy", "all", .false., "none", 2
"ocean_model", "photoC_diat_zint", "photoC_diat_zint", "marbl%4yr-%2mo-%2dy", "all", .false., "none", 2
"ocean_model", "photoC_diat_zint_100m", "photoC_diat_zint_100m", "marbl%4yr-%2mo-%2dy", "all", .false., "none", 2
"ocean_model", "photoC_NO3_diat_zint", "photoC_NO3_diat_zint", "marbl%4yr-%2mo-%2dy", "all", .false., "none", 2
"ocean_model", "graze_diat_zint", "graze_diat_zint", "marbl2%4yr-%2mo-%2dy", "all", .false., "none", 2
"ocean_model", "graze_diat_zint_100m", "graze_diat_zint_100m", "marbl2%4yr-%2mo-%2dy", "all", .false., "none", 2
"ocean_model", "graze_diat_poc_zint", "graze_diat_poc_zint", "marbl2%4yr-%2mo-%2dy", "all", .false., "none", 2
"ocean_model", "graze_diat_poc_zint_100m", "graze_diat_poc_zint_100m", "marbl2%4yr-%2mo-%2dy", "all", .false., "none", 2
"ocean_model", "graze_diat_doc_zint", "graze_diat_doc_zint", "marbl2%4yr-%2mo-%2dy", "all", .false., "none", 2
"ocean_model", "graze_diat_doc_zint_100m", "graze_diat_doc_zint_100m", "marbl2%4yr-%2mo-%2dy", "all", .false., "none", 2
"ocean_model", "graze_diat_zoo_zint", "graze_diat_zoo_zint", "marbl2%4yr-%2mo-%2dy", "all", .false., "none", 2
"ocean_model", "graze_diat_zoo_zint_100m", "graze_diat_zoo_zint_100m", "marbl2%4yr-%2mo-%2dy", "all", .false., "none", 2
"ocean_model", "diat_loss_zint", "diat_loss_zint", "marbl%4yr-%2mo-%2dy", "all", .false., "none", 2
"ocean_model", "diat_loss_zint_100m", "diat_loss_zint_100m", "marbl%4yr-%2mo-%2dy", "all", .false., "none", 2
"ocean_model", "diat_loss_poc_zint", "diat_loss_poc_zint", "marbl%4yr-%2mo-%2dy", "all", .false., "none", 2
"ocean_model", "diat_loss_poc_zint_100m", "diat_loss_poc_zint_100m", "marbl%4yr-%2mo-%2dy", "all", .false., "none", 2
"ocean_model", "diat_loss_doc_zint", "diat_loss_doc_zint", "marbl%4yr-%2mo-%2dy", "all", .false., "none", 2
"ocean_model", "diat_loss_doc_zint_100m", "diat_loss_doc_zint_100m", "marbl%4yr-%2mo-%2dy", "all", .false., "none", 2
"ocean_model", "diat_agg_zint", "diat_agg_zint", "marbl%4yr-%2mo-%2dy", "all", .false., "none", 2
"ocean_model", "diat_agg_zint_100m", "diat_agg_zint_100m", "marbl%4yr-%2mo-%2dy", "all", .false., "none", 2
"ocean_model", "diaz_N_lim_surf", "diaz_N_lim_surf", "marbl%4yr-%2mo-%2dy", "all", .false., "none", 2
"ocean_model", "diaz_N_lim_Cweight_avg_100m", "diaz_N_lim_Cweight_avg_100m", "marbl%4yr-%2mo-%2dy", "all", .false., "none", 2
"ocean_model", "diaz_P_lim_surf", "diaz_P_lim_surf", "marbl%4yr-%2mo-%2dy", "all", .false., "none", 2
"ocean_model", "diaz_P_lim_Cweight_avg_100m", "diaz_P_lim_Cweight_avg_100m", "marbl%4yr-%2mo-%2dy", "all", .false., "none", 2
"ocean_model", "diaz_Fe_lim_surf", "diaz_Fe_lim_surf", "marbl%4yr-%2mo-%2dy", "all", .false., "none", 2
"ocean_model", "diaz_Fe_lim_Cweight_avg_100m", "diaz_Fe_lim_Cweight_avg_100m", "marbl%4yr-%2mo-%2dy", "all", .false., "none", 2