! Generated by Generate_IC_Files.ipynb
F_0 = -1.12715e-04
INPUTDIR = "INPUT/KERFIX"
CESM_INPUTDIR = "INPUT/KERFIX"
SOUTHLAT = -50.80233
WESTLON = 69.33334
CHL_FROM_FILE = FALSE
READ_RIV_FLUXES = FALSE
